Olin.glm
object node {
	phases A;
	name nodeT6246301357619342;
	longitude 256.581462998;
	nominal_voltage 7200.0;
	latitude 847.660111688;
};

object triplex_meter {
	phases AS;
	name node62474205151T62474205022_A;
	longitude 181.862812754;
	nominal_voltage 120;
	latitude 1039.07052677;
};

object node {
	phases B;
	name nodeF751657760;
	longitude 599.398896118;
	nominal_voltage 7200.0;
	latitude 401.695497999;
};

object triplex_meter {
	phases AS;
	name node62474206532T62474206505_A;
	longitude 96.3168959285;
	nominal_voltage 120;
	latitude 1042.49136209;
};

object node {
	phases A;
	name nodeT6247421135620750;
	longitude 125.896849477;
	nominal_voltage 7200.0;
	latitude 1136.86642012;
};

object transformer {
	phases AS;
	from nodeT6246307477519519;
	name T62463074775_A;
	to node62463074798T62463074775_A;
	configuration T62474196103_A-CONFIG;
};

object transformer {
	phases CS;
	from nodeT6246302425720132;
	name T62463024257_C;
	to node62463025237T62463024257_C;
	configuration T62462222900_C-CONFIG;
};

object overhead_line {
	phases ACB;
	from node7092570924;
	name 70925;
	longitude 538.942949319;
	to nodeSW1250-Bx170925;
	length 222.516;
	latitude 812.306219473;
	configuration 20531-LINECONFIG;
};

object underground_line {
	phases C;
	from node5814358137;
	name 58143;
	longitude 125.834933197;
	to nodeT6247420335658143;
	length 143.116;
	latitude 1007.10841575;
	configuration 57821-LINECONFIG;
};

object node {
	phases ABC;
	name node1744316564;
	longitude 590.403072312;
	nominal_voltage 7200.0;
	latitude 539.851811316;
};

object triplex_node {
	phases BS;
	power_12 3787.51+820.484j;
	name 62474202953_B;
	parent node62474202953T62474202989_B;
	longitude 21.3045325485;
	nominal_voltage 120;
	latitude 990.245283625;
};

object overhead_line {
	phases ACB;
	from node1753517756;
	name 17535;
	longitude 634.224324632;
	to node1655717535;
	length 436.493;
	latitude 536.175974456;
	configuration 20531-LINECONFIG;
};

object triplex_node {
	phases CS;
	power_12 1763.8+382.091j;
	name 62474181087_C;
	parent node62474181058T62474181036_C;
	longitude 171.382718381;
	nominal_voltage 120;
	latitude 654.623212283;
};

object triplex_meter {
	phases AS;
	name node62462239978T62463120010_A;
	longitude 684.143624165;
	nominal_voltage 120;
	latitude 628.365869154;
};

object overhead_line {
	phases ACB;
	from nodeT6246301824919815;
	name 19765;
	longitude 331.242162363;
	to node1974819765;
	length 386.822;
	latitude 912.630275033;
	configuration 20531-LINECONFIG;
};

object overhead_line {
	phases A;
	from node1938619340;
	name 19386;
	longitude 562.61816679;
	to nodeT6246313376119386;
	length 333.034;
	latitude 847.467712514;
	configuration 18949-LINECONFIG;
};

object overhead_line {
	phases ACB;
	from node1502815305;
	name 15028;
	longitude 493.581514423;
	to node1460115028;
	length 436.471;
	latitude 86.2454417681;
	configuration 20531-LINECONFIG;
};

object overhead_line {
	phases A;
	from nodeT6246301607719714;
	name 18588;
	longitude 352.536228241;
	to node1950718588;
	length 218.301;
	latitude 885.076707758;
	configuration 18949-LINECONFIG;
};

object node {
	phases A;
	name nodeT6247420813820424;
	longitude 155.807582559;
	nominal_voltage 7200.0;
	latitude 1084.24021241;
};

object node {
	phases ABC;
	name nodeF617157810;
	longitude 231.655766444;
	nominal_voltage 7200.0;
	latitude 657.187035286;
};

object node {
	phases C;
	name nodeT6246223563117082;
	longitude 744.342428879;
	nominal_voltage 7200.0;
	latitude 549.917360615;
};

object triplex_node {
	phases CS;
	power_12 73.1765+15.8521j;
	name 62463021692_C;
	parent node62463021692T62463021663_C;
	longitude 244.641588393;
	nominal_voltage 120;
	latitude 972.545010643;
};

object overhead_line {
	phases ACB;
	from node6806216557;
	name 17210;
	longitude 627.950161729;
	to node6806417210;
	length 158.967;
	latitude 505.199727129;
	configuration 20531-LINECONFIG;
};

object node {
	phases C;
	name nodeT6246222974116092;
	longitude 727.145207255;
	nominal_voltage 7200.0;
	latitude 454.011400675;
};

object node {
	phases C;
	name nodeT6247420335658143;
	longitude 125.834933197;
	nominal_voltage 7200.0;
	latitude 1007.10841575;
};

object overhead_line {
	phases A;
	from node1909519041;
	name 19095;
	longitude 650.810707479;
	to nodeF824519095;
	length 29.6986;
	latitude 805.130321639;
	configuration 18949-LINECONFIG;
};

object overhead_line {
	phases ACB;
	from node7055868065;
	name 70558;
	longitude 620.718039897;
	to node7055970558;
	length 401.908;
	latitude 470.932535263;
	configuration 20531-LINECONFIG;
};

object node {
	phases C;
	name node67783R1203;
	longitude 647.181308967;
	nominal_voltage 7200.0;
	latitude 524.265891031;
};

object overhead_line {
	phases C;
	from node1934419345;
	name 19344;
	longitude 475.767669539;
	to nodeF758919344;
	length 25;
	latitude 849.427012707;
	configuration 16781-LINECONFIG;
};

object node {
	phases C;
	name node1639016678;
	longitude 722.26925989;
	nominal_voltage 7200.0;
	latitude 356.090347131;
};

object node {
	phases ABC;
	name node6830168300;
	longitude 248.004042698;
	nominal_voltage 7200.0;
	latitude 1190.01021482;
};

object transformer {
	phases BS;
	from nodeT6246302067019935;
	name T62463020670_B;
	to node62463020586T62463020670_B;
	configuration T62463072031_B-CONFIG;
};

object node {
	phases A;
	name node58261F7427;
	longitude 146.75745101;
	nominal_voltage 7200.0;
	latitude 1067.33944905;
};

object underground_line {
	phases ACB;
	from nodeT6247418103657857;
	name 57845;
	longitude 165.114539702;
	to nodeT6247418012257845;
	length 258.114;
	latitude 629.485183415;
	configuration 57825-LINECONFIG;
};

object node {
	phases ABC;
	name nodeF518757854;
	longitude 293.848377218;
	nominal_voltage 7200.0;
	latitude 639.758766286;
};

object overhead_line {
	phases ACB;
	from node2024820286;
	name 20208;
	longitude 200.557563958;
	to nodeT6246302591020208;
	length 393.554;
	latitude 1032.88990513;
	configuration 17361-LINECONFIG;
};

object underground_line {
	phases A;
	from node58261F7427;
	name 58261;
	longitude 146.75745101;
	to nodeT6247420722358261;
	length 100.748;
	latitude 1067.33944905;
	configuration 58233-LINECONFIG;
};

object underground_line {
	phases ACB;
	from node57818SW1420-Ax1;
	name 57818;
	longitude 93.8142446595;
	to node1843257818;
	length 21.6692;
	latitude 674.283747933;
	configuration 57809-LINECONFIG;
};

object triplex_node {
	phases BS;
	power_12 4653.01+1007.98j;
	name 62474204762_B;
	parent node62474204748T62474204749_B;
	longitude 57.7692892941;
	nominal_voltage 120;
	latitude 1016.68248346;
};

object overhead_line {
	phases A;
	from nodeT6247419621319560;
	name 19682;
	longitude 143.037309467;
	to nodeT6247419721519682;
	length 198.705;
	latitude 902.625503134;
	configuration 18949-LINECONFIG;
};

object node {
	phases ABC;
	name node6806417210;
	longitude 627.695921025;
	nominal_voltage 7200.0;
	latitude 503.995121002;
};

object transformer_configuration {
	powerC_rating 75;
	name T62474204354_C-CONFIG;
	primary_voltage 7200.0;
	secondary_voltage 120.0;
	connect_type SINGLE_PHASE_CENTER_TAPPED;
	impedance 0.00033+0.0022j;
	power_rating 75;
};

object transformer {
	phases CS;
	from nodeT6247420435458172;
	name T62474204354_C;
	to node62474204371T62474204354_C;
	configuration T62474204354_C-CONFIG;
};

object underground_line {
	phases C;
	from node57781F7515;
	name 57781;
	longitude 514.473124479;
	to nodeT6246211006057781;
	length 373.741;
	latitude 473.585485112;
	configuration 57821-LINECONFIG;
};

object overhead_line {
	phases B;
	from node7247472473;
	name 72474;
	longitude 469.531463618;
	to node7247572474;
	length 255;
	latitude 367.563804325;
	configuration 16194-LINECONFIG;
};

object overhead_line {
	phases A;
	from nodeT6246313468319341;
	name 19316;
	longitude 582.869940009;
	to node5796319316;
	length 159.789;
	latitude 877.583266225;
	configuration 18949-LINECONFIG;
};

object node {
	phases ABCN;
	name BURLINGTON;
	bustype SWING;
	longitude 249.241975273;
	nominal_voltage 7200.0;
	latitude 1186.14884667;
};

object triplex_node {
	phases AS;
	power_12 5457.95+1182.35j;
	name 62474203552_A;
	parent node62474203572T62474203566_A;
	longitude 81.9124056296;
	nominal_voltage 120;
	latitude 1006.38399003;
};

object node {
	phases B;
	name node1957419915;
	longitude 200.124149997;
	nominal_voltage 7200.0;
	latitude 926.888086257;
};

object node {
	phases A;
	name node18410F7423;
	longitude 72.0451597803;
	nominal_voltage 7200.0;
	latitude 669.822516823;
};

object triplex_node {
	phases AS;
	power_12 3489.76+755.982j;
	name 62463017481_A;
	parent node62463017349T62463017451_A;
	longitude 276.495237711;
	nominal_voltage 120;
	latitude 916.244075965;
};

object underground_line {
	phases B;
	from node7252257823;
	name 72522;
	longitude 146.048784717;
	to nodeT6247323828372522;
	length 143.061;
	latitude 606.132946181;
	configuration 58119-LINECONFIG;
};

object node {
	phases C;
	name node5776117147;
	longitude 544.67591919;
	nominal_voltage 7200.0;
	latitude 473.443524495;
};

object triplex_node {
	phases CS;
	power_12 2172.58+470.644j;
	name 62463073088_C;
	parent node62463073088T62463074161_C;
	longitude 499.427170987;
	nominal_voltage 120;
	latitude 865.41675457;
};

object overhead_line {
	phases B;
	from nodeT6246210126716194;
	name 16109;
	longitude 476.048867608;
	to nodeT6246210022416109;
	length 304.822;
	latitude 305.023540887;
	configuration 16194-LINECONFIG;
};

object overhead_line {
	phases A;
	from nodeT6247420708520423;
	name 20424;
	longitude 155.807582559;
	to nodeT6247420813820424;
	length 257.596;
	latitude 1084.24021241;
	configuration 18949-LINECONFIG;
};

object transformer {
	phases AS;
	from nodeT6247420682458243;
	name T62474206824_A;
	to node62474205893T62474206824_A;
	configuration T62474206724_A-CONFIG;
};

object node {
	phases C;
	name node1647717013;
	longitude 769.980938623;
	nominal_voltage 7200.0;
	latitude 452.381056004;
};

object node {
	phases C;
	name node1719417240;
	longitude 728.558962318;
	nominal_voltage 7200.0;
	latitude 503.549110146;
};

object underground_line {
	phases A;
	from nodeT6247420650557921;
	name 58233;
	longitude 78.5102261702;
	to nodeT6247420662458233;
	length 199.88;
	latitude 1050.61088173;
	configuration 58233-LINECONFIG;
};

object triplex_meter {
	phases CS;
	name node62474211060T62463031930_C;
	longitude 193.315594864;
	nominal_voltage 120;
	latitude 1141.43866153;
};

object node {
	phases ABC;
	name nodeT6246302067019935;
	longitude 250.792275688;
	nominal_voltage 7200.0;
	latitude 961.813564972;
};

object overhead_line {
	phases ACB;
	from node1792418217;
	name 17924;
	longitude 21.4921647125;
	to node1830817924;
	length 201.443;
	latitude 658.025251332;
	configuration 20531-LINECONFIG;
};

object triplex_node {
	phases AS;
	power_12 0.0+0.0j;
	name 62462059675_A;
	parent node62462059675T62463000610_A;
	longitude 247.831172942;
	nominal_voltage 120;
	latitude 637.856336514;
};

object underground_line {
	phases ACB;
	from nodeT6246300294857880;
	name 57857;
	longitude 174.534319707;
	to nodeT6247418103657857;
	length 280.001;
	latitude 647.617935399;
	configuration 57825-LINECONFIG;
};

object fuse {
	phases ACB;
	from nodeF716757851;
	name F7167;
	current_limit 9999.0 A;
	longitude 235.325243249;
	to node57808F7167;
	latitude 654.50603542;
};

object triplex_node {
	phases AS;
	power_12 3012.85+652.67j;
	name 62474202555_A;
	parent node62474202555T62474202581_A;
	longitude 92.196064384;
	nominal_voltage 120;
	latitude 999.265205206;
};

object switch {
	status CLOSED;
	phases ACB;
	from nodeSW1139-Bx157809;
	name SW1139-Bx1;
	longitude 231.738573417;
	to nodeSW1139-Ax1SW1139-Bx1;
	latitude 657.564461465;
};

object node {
	phases ABC;
	name nodeT6246205758557801;
	longitude 258.730866916;
	nominal_voltage 7200.0;
	latitude 590.049201903;
};

object node {
	phases ABC;
	name nodeT6246301704519748;
	longitude 341.675070684;
	nominal_voltage 7200.0;
	latitude 908.144321561;
};

object triplex_node {
	phases AS;
	power_12 2977.52+645.017j;
	name 62474207708_A;
	parent node62474206893T62474207830_A;
	longitude 48.3670787467;
	nominal_voltage 120;
	latitude 1072.16100975;
};

object triplex_node {
	phases BS;
	power_12 1816.79+393.57j;
	name 62463020699_B;
	parent node62463019768T62463020860_B;
	longitude 204.816651999;
	nominal_voltage 120;
	latitude 966.677377304;
};

object triplex_node {
	phases CS;
	power_12 0.0+0.0j;
	name 62462157070_C;
	parent node62462219940T62462219856_C;
	longitude 698.773253303;
	nominal_voltage 120;
	latitude 303.19502686;
};

object triplex_meter {
	phases CS;
	name node62462231679T62462231679_C;
	longitude 733.510359743;
	nominal_voltage 120;
	latitude 488.243517983;
};

object overhead_line {
	phases C;
	from nodeT6246223396017093;
	name 17240;
	longitude 715.231493096;
	to node1719417240;
	length 278.181;
	latitude 509.098356806;
	configuration 16781-LINECONFIG;
};

object node {
	phases B;
	name nodeT6247420398758183;
	longitude 24.2561260003;
	nominal_voltage 7200.0;
	latitude 1011.70572362;
};

object triplex_node {
	phases AS;
	power_12 6459.72+1399.36j;
	name 62474204662_A;
	parent node62474204552T62474204575_A;
	longitude 92.5684578682;
	nominal_voltage 120;
	latitude 1031.44494277;
};

object triplex_meter {
	phases CS;
	name node62462223811T62462223734_C;
	longitude 728.601316642;
	nominal_voltage 120;
	latitude 354.430922078;
};

object overhead_line {
	phases C;
	from node1714317279;
	name 17143;
	longitude 689.175058533;
	to node1689417143;
	length 321.163;
	latitude 469.778006712;
	configuration 14901-LINECONFIG;
};

object node {
	phases A;
	name node19049F5007;
	longitude 686.548736005;
	nominal_voltage 7200.0;
	latitude 778.467312544;
};

object node {
	phases ABC;
	name node1875419009;
	longitude 647.938780685;
	nominal_voltage 7200.0;
	latitude 751.156736272;
};

object triplex_node {
	phases CS;
	power_12 1380.26+299.004j;
	name 62462234833_C;
	parent node62462234942T62462233960_C;
	longitude 704.01272813;
	nominal_voltage 120;
	latitude 519.784142774;
};

object transformer {
	phases CS;
	from nodeT6246215611715674;
	name T62462156117_C;
	to node62462157141T62462156117_C;
	configuration T62462222900_C-CONFIG;
};

object triplex_meter {
	phases BS;
	name node62462058744T62462058764_B;
	longitude 223.481097159;
	nominal_voltage 120;
	latitude 600.123603459;
};

object node {
	phases ABC;
	name nodeT6246217327217422;
	longitude 643.55314495;
	nominal_voltage 7200.0;
	latitude 524.265193857;
};

object overhead_line {
	phases C;
	from node1920219511;
	name 19198;
	longitude 493.927218689;
	to nodeT6246307513319198;
	length 115.812;
	latitude 874.768127922;
	configuration 16781-LINECONFIG;
};

object overhead_line {
	phases ACB;
	from node1778317643;
	name 17783;
	longitude 405.7790594;
	to node1817717783;
	length 338.245;
	latitude 614.664711377;
	configuration 16564-LINECONFIG;
};

object transformer {
	phases AS;
	from nodeT6247420457558177;
	name T62474204575_A;
	to node62474204552T62474204575_A;
	configuration T62474207830_A-CONFIG;
};

object underground_line {
	phases ACB;
	from node58181F7508;
	name 58181;
	longitude 180.553440743;
	to nodeT6247420307358181;
	length 179.161;
	latitude 1010.63235852;
	configuration 57825-LINECONFIG;
};

object node {
	phases A;
	name nodeT6246318632418790;
	longitude 788.256595923;
	nominal_voltage 7200.0;
	latitude 726.013202047;
};

object node {
	phases C;
	name node19851F7573;
	longitude 272.741612117;
	nominal_voltage 7200.0;
	latitude 943.444541535;
};

object node {
	phases C;
	name nodeF757220499;
	longitude 216.79145029;
	nominal_voltage 7200.0;
	latitude 1087.58799361;
};

object transformer {
	phases CS;
	from nodeT6246222458016622;
	name T62462224580_C;
	to node62462225428T62462224580_C;
	configuration T62462222900_C-CONFIG;
};

object overhead_line {
	phases ACB;
	from node1718817205;
	name 17188;
	longitude 629.447545089;
	to nodeSW1375-Ax117188;
	length 19.975;
	latitude 502.79676967;
	configuration 20531-LINECONFIG;
};

object node {
	phases A;
	name node2086520864;
	longitude 140.988937728;
	nominal_voltage 7200.0;
	latitude 1149.7774816;
};

object underground_line {
	phases ACB;
	from node57850F5187;
	name 57850;
	longitude 285.45183327;
	to node5783757850;
	length 110.07;
	latitude 639.217554618;
	configuration 57825-LINECONFIG;
};

object triplex_meter {
	phases CS;
	name node62474202147T62474202166_C;
	longitude 148.797808648;
	nominal_voltage 120;
	latitude 1003.02278522;
};

object overhead_line {
	phases C;
	from node1514116021;
	name 15141;
	longitude 703.802789798;
	to nodeT6246221985615141;
	length 270.724;
	latitude 293.60112051;
	configuration 16781-LINECONFIG;
};

object triplex_meter {
	phases CS;
	name node62462229732T62462229741_C;
	longitude 725.510069889;
	nominal_voltage 120;
	latitude 452.703487957;
};

object transformer {
	phases AS;
	from nodeT6246301620119561;
	name T62463016201_A;
	to node62463016251T62463016201_A;
	configuration T62463120010_A-CONFIG;
};

object triplex_node {
	phases CS;
	power_12 2424.92+525.306j;
	name 62474204990_C;
	parent node62474204990T62474204859_C;
	longitude 40.6300043741;
	nominal_voltage 120;
	latitude 1024.28951359;
};

object triplex_node {
	phases CS;
	power_12 227.099+49.1962j;
	name 62462222991_C;
	parent node62462222990T62462222900_C;
	longitude 691.524969864;
	nominal_voltage 120;
	latitude 330.688004193;
};

object overhead_line {
	phases ACB;
	from nodeT6246301704519748;
	name 19731;
	longitude 354.06868137;
	to node5801719731;
	length 155.789;
	latitude 904.772272871;
	configuration 20531-LINECONFIG;
};

object triplex_meter {
	phases BS;
	name node62474202650T62474202681_B;
	longitude 79.2584733458;
	nominal_voltage 120;
	latitude 986.60614511;
};

object transformer {
	phases CS;
	from nodeT6246216887016738;
	name T62462168870_C;
	to node62462168810T62462168870_C;
	configuration T62462230473_C-CONFIG;
};

object fuse {
	phases A;
	from nodeF759118823;
	name F7591;
	current_limit 9999.0 A;
	longitude 655.275995926;
	to node18675F7591;
	latitude 720.290983021;
};

object transformer_configuration {
	name T62462091135_B-CONFIG;
	primary_voltage 7200.0;
	secondary_voltage 120.0;
	connect_type SINGLE_PHASE_CENTER_TAPPED;
	impedance 0.00627571632442+0.0313785816221j;
	powerB_rating 5000;
	power_rating 5000;
};

object transformer {
	phases BS;
	from nodeT6246209113515042;
	name T62462091135_B;
	to node62462091125T62462091135_B;
	configuration T62462091135_B-CONFIG;
};

object node {
	phases A;
	name nodeT6247419610319558;
	longitude 163.000155169;
	nominal_voltage 7200.0;
	latitude 885.694390604;
};

object node {
	phases B;
	name nodeT6246205736757790;
	longitude 289.15890427;
	nominal_voltage 7200.0;
	latitude 587.4241488;
};

object triplex_node {
	phases AS;
	power_12 1143.07+247.621j;
	name 62463186398_A;
	parent node62463186398T62463185453_A;
	longitude 773.530475262;
	nominal_voltage 120;
	latitude 712.155535249;
};

object triplex_node {
	phases AS;
	power_12 2149.87+465.724j;
	name 62474206990_A;
	parent node62474207930T62474207936_A;
	longitude 21.1713620208;
	nominal_voltage 120;
	latitude 1074.69114176;
};

object triplex_meter {
	phases CS;
	name node62462227630T62462227535_C;
	longitude 755.320339423;
	nominal_voltage 120;
	latitude 421.455330266;
};

object triplex_node {
	phases CS;
	power_12 5854.12+1268.17j;
	name 62462231529_C;
	parent node62462231529T62462231545_C;
	longitude 748.262215443;
	nominal_voltage 120;
	latitude 489.668593176;
};

object triplex_node {
	phases AS;
	power_12 8120.06+1759.04j;
	name 62463193561_A;
	parent node62463193561T62463193504_A;
	longitude 752.837085246;
	nominal_voltage 120;
	latitude 846.98385377;
};

object underground_line {
	phases A;
	from nodeT6247418038957852;
	name 57847;
	longitude 125.410256448;
	to nodeT6247418035657847;
	length 108.756;
	latitude 633.769605273;
	configuration 58233-LINECONFIG;
};

object triplex_meter {
	phases BS;
	name node62462163909T62462162948_B;
	longitude 516.433986917;
	nominal_voltage 120;
	latitude 332.883249421;
};

object overhead_line {
	phases ACB;
	from node6830421011;
	name 68304;
	longitude 246.830576009;
	to node6830568304;
	length 14.8233;
	latitude 1188.09743213;
	configuration 20531-LINECONFIG;
};

object transformer {
	phases BS;
	from nodeT6247323828372522;
	name T62473238283_B;
	to node62473238255T62473238283_B;
	configuration T62463022938_B-CONFIG;
};

object triplex_node {
	phases CS;
	power_12 47.9432+10.3859j;
	name 62462161015_C;
	parent node62462161131T62462161089_C;
	longitude 673.127493554;
	nominal_voltage 120;
	latitude 318.635249469;
};

object triplex_node {
	phases CS;
	power_12 1836.98+397.943j;
	name 62463001747_C;
	parent node62463001766T62463001769_C;
	longitude 223.900240051;
	nominal_voltage 120;
	latitude 657.343674175;
};

object node {
	phases ABC;
	name node1756317443;
	longitude 559.702931853;
	nominal_voltage 7200.0;
	latitude 556.610777217;
};

object triplex_meter {
	phases AS;
	name node62474181335T62474180389_A;
	longitude 112.647899391;
	nominal_voltage 120;
	latitude 636.752415337;
};

object triplex_node {
	phases AS;
	power_12 0.0+0.0j;
	name 62463133761_A;
	parent node62463133761T62463133761_A;
	longitude 575.111795866;
	nominal_voltage 120;
	latitude 852.331163722;
};

object node {
	phases A;
	name node1948319584;
	longitude 227.026793882;
	nominal_voltage 7200.0;
	latitude 858.13067729;
};

object transformer {
	phases BS;
	from nodeT6246312312617886;
	name T62463123126_B;
	to node62463123162T62463123126_B;
	configuration T62463025910_B-CONFIG;
};

object transformer {
	phases AS;
	from nodeT6246312001018203;
	name T62463120010_A;
	to node62462239978T62463120010_A;
	configuration T62463120010_A-CONFIG;
};

object transformer_configuration {
	name T62463120010_A-CONFIG;
	primary_voltage 7200.0;
	secondary_voltage 120.0;
	connect_type SINGLE_PHASE_CENTER_TAPPED;
	impedance 0.00627571632442+0.0313785816221j;
	powerA_rating 5000;
	power_rating 5000;
};

object triplex_node {
	phases CS;
	power_12 3757.23+813.924j;
	name 62463021167_C;
	parent node62463021167T62463021200_C;
	longitude 310.49873724;
	nominal_voltage 120;
	latitude 972.537860706;
};

object overhead_line {
	phases ACB;
	from node7055868065;
	name 17189;
	longitude 629.447545089;
	to nodeSW1375-Bx117189;
	length 24.2364;
	latitude 502.79676967;
	configuration 20531-LINECONFIG;
};

object transformer {
	phases CS;
	from nodeT6246307513319198;
	name T62463075133_C;
	to node62463075194T62463075133_C;
	configuration T62462222900_C-CONFIG;
};

object triplex_meter {
	phases AS;
	name node62474209432T62474209464_A;
	longitude 110.166923563;
	nominal_voltage 120;
	latitude 1114.11476532;
};

object node {
	phases ABC;
	name node1950119186;
	longitude 442.201336394;
	nominal_voltage 7200.0;
	latitude 861.300220299;
};

object triplex_node {
	phases AS;
	power_12 1178.39+255.274j;
	name 62463002869_A;
	parent node62463002869T62463003904_A;
	longitude 186.842479284;
	nominal_voltage 120;
	latitude 658.418367094;
};

object transformer {
	phases CS;
	from nodeT6246302843020478;
	name T62463028430_C;
	to node62463028401T62463028430_C;
	configuration T62463074165_C-CONFIG;
};

object overhead_line {
	phases B;
	from nodeT6246216294816246;
	name 16237;
	longitude 516.667086143;
	to nodeF751416237;
	length 25;
	latitude 340.202033022;
	configuration 16194-LINECONFIG;
};

object node {
	phases C;
	name nodeT6246223256417176;
	longitude 756.668973667;
	nominal_voltage 7200.0;
	latitude 505.827556015;
};

object node {
	phases ABC;
	name nodeSW1039-Ax1SW1039-Bx1;
	longitude 488.300732933;
	nominal_voltage 7200.0;
	latitude 161.757994096;
};

object triplex_node {
	phases AS;
	power_12 7022.42+1521.26j;
	name 62463016996_A;
	parent node62474195011T62474196023_A;
	longitude 171.225182758;
	nominal_voltage 120;
	latitude 888.969311737;
};

object node {
	phases C;
	name nodeT6246313995019792;
	longitude 530.994416623;
	nominal_voltage 7200.0;
	latitude 941.731920901;
};

object triplex_meter {
	phases CS;
	name node62462232961T62462233819_C;
	longitude 694.177401947;
	nominal_voltage 120;
	latitude 519.058054145;
};

object node {
	phases B;
	name node5776016286;
	longitude 599.398896118;
	nominal_voltage 7200.0;
	latitude 401.695497999;
};

object overhead_line {
	phases ACB;
	from nodeT6246302788020367;
	name 20286;
	longitude 223.420160483;
	to node2024820286;
	length 266.66;
	latitude 1055.54235659;
	configuration 20531-LINECONFIG;
};

object triplex_meter {
	phases BS;
	name node62474202953T62474202989_B;
	longitude 17.2837423595;
	nominal_voltage 120;
	latitude 988.905246062;
};

object overhead_line {
	phases C;
	from nodeT6246223796417998;
	name 17773;
	longitude 694.231539629;
	to nodeT6246223698117773;
	length 158.17;
	latitude 575.081097968;
	configuration 16781-LINECONFIG;
};

object overhead_line {
	phases ACB;
	from node19281SW1250-Ax1;
	name 19281;
	longitude 540.797862923;
	to node1908919281;
	length 25.0002;
	latitude 811.418202744;
	configuration 20531-LINECONFIG;
};

object underground_line {
	phases C;
	from nodeT6247418103657857;
	name 57849;
	longitude 186.972140467;
	to nodeT6246300097957849;
	length 189.809;
	latitude 638.265507038;
	configuration 57821-LINECONFIG;
};

object transformer {
	phases CS;
	from nodeT6247418103657857;
	name T62474181036_C;
	to node62474181058T62474181036_C;
	configuration T62463001769_C-CONFIG;
};

object triplex_meter {
	phases BS;
	name node62463027798T62463027880_B;
	longitude 223.746460752;
	nominal_voltage 120;
	latitude 1077.85056152;
};

object overhead_line {
	phases ACB;
	from node6816115040;
	name 15305;
	longitude 497.002363705;
	to node1502815305;
	length 470.042;
	latitude 121.444364428;
	configuration 20531-LINECONFIG;
};

object triplex_node {
	phases AS;
	power_12 2652.02+574.503j;
	name 62474181335_A;
	parent node62474181335T62474180389_A;
	longitude 115.869818828;
	nominal_voltage 120;
	latitude 636.970289722;
};

object triplex_node {
	phases AS;
	power_12 116.073+25.1447j;
	name 62474195267_A;
	parent node62474195268T62474196213_A;
	longitude 151.621328261;
	nominal_voltage 120;
	latitude 874.976879617;
};

object node {
	phases ABC;
	name node57811F6171;
	longitude 199.611567048;
	nominal_voltage 7200.0;
	latitude 680.897370723;
};

object node {
	phases ABC;
	name node1640116676;
	longitude 533.780664346;
	nominal_voltage 7200.0;
	latitude 357.052328178;
};

object fuse {
	phases C;
	from nodeF581519816;
	name F5815;
	current_limit 9999.0 A;
	longitude 302.438590932;
	to node19563F5815;
	latitude 925.615577721;
};

object triplex_node {
	phases CS;
	power_12 2369.4+513.281j;
	name 62463001801_C;
	parent node62463001804T62463001814_C;
	longitude 210.146131236;
	nominal_voltage 120;
	latitude 658.658192707;
};

object node {
	phases A;
	name node1889318358;
	longitude 742.588169542;
	nominal_voltage 7200.0;
	latitude 753.799693353;
};

object overhead_line {
	phases A;
	from node2088720886;
	name 20887;
	longitude 141.355280754;
	to node2040020887;
	length 248.917;
	latitude 1164.71369871;
	configuration 18949-LINECONFIG;
};

object overhead_line {
	phases ACB;
	from node1656468063;
	name 16552;
	longitude 627.719482266;
	to nodeSW1276-Ax116552;
	length 29.1022;
	latitude 516.879966936;
	configuration 16564-LINECONFIG;
};

object overhead_line {
	phases C;
	from nodeT6246222373416390;
	name 14901;
	longitude 733.445163573;
	to nodeT6246222261814901;
	length 271.745;
	latitude 337.002323767;
	configuration 14901-LINECONFIG;
};

object triplex_node {
	phases AS;
	power_12 4690.86+1016.18j;
	name 62463015244_A;
	parent node62463016251T62463016201_A;
	longitude 306.590192239;
	nominal_voltage 120;
	latitude 890.296485196;
};

object overhead_line {
	phases ACB;
	from node7055970558;
	name 70559;
	longitude 620.215791436;
	to nodeT6246217033670559;
	length 30;
	latitude 468.552727758;
	configuration 20531-LINECONFIG;
};

object node {
	phases A;
	name nodeT6247420708520423;
	longitude 175.925223998;
	nominal_voltage 7200.0;
	latitude 1077.47588225;
};

object overhead_line {
	phases ACB;
	from node1504015185;
	name 15040;
	longitude 500.387170745;
	to node6816115040;
	length 286.057;
	latitude 159.377400387;
	configuration 20531-LINECONFIG;
};

object triplex_node {
	phases AS;
	power_12 2727.72+590.901j;
	name 62474206806_A;
	parent node62474205893T62474206824_A;
	longitude 51.8367184294;
	nominal_voltage 120;
	latitude 1053.9947198;
};

object overhead_line {
	phases C;
	from node6778217421;
	name 67782;
	longitude 646.801371362;
	to nodeR120367782;
	length 20;
	latitude 524.424168394;
	configuration 16781-LINECONFIG;
};

object node {
	phases A;
	name nodeT6246319350418558;
	longitude 756.689612427;
	nominal_voltage 7200.0;
	latitude 836.764262415;
};

object transformer {
	phases CS;
	from nodeT6246222753516865;
	name T62462227535_C;
	to node62462227630T62462227535_C;
	configuration T62463074165_C-CONFIG;
};

object triplex_node {
	phases CS;
	power_12 3451.91+747.783j;
	name 62474204371_C;
	parent node62474204371T62474204354_C;
	longitude 135.063342072;
	nominal_voltage 120;
	latitude 1026.3937702;
};

object node {
	phases C;
	name node19353F7589;
	longitude 489.91300002;
	nominal_voltage 7200.0;
	latitude 862.56596975;
};

object triplex_node {
	phases AS;
	power_12 4173.58+904.117j;
	name 62474205893_A;
	parent node62474205893T62474206824_A;
	longitude 49.8985874731;
	nominal_voltage 120;
	latitude 1051.46121586;
};

object overhead_line {
	phases A;
	from nodeT6246313125019103;
	name 19284;
	longitude 623.646980258;
	to node1929719284;
	length 278.816;
	latitude 813.63583662;
	configuration 18949-LINECONFIG;
};

object node {
	phases A;
	name nodeF742758262;
	longitude 154.37379843;
	nominal_voltage 7200.0;
	latitude 1066.8790349;
};

object fuse {
	phases C;
	from nodeF758919344;
	name F7589;
	current_limit 9999.0 A;
	longitude 475.767669539;
	to node19353F7589;
	latitude 849.427012707;
};

object triplex_meter {
	phases CS;
	name node62462091125T62462091135_C;
	longitude 496.8245509;
	nominal_voltage 120;
	latitude 158.875278978;
};

object node {
	phases C;
	name node1710567783;
	longitude 654.346042424;
	nominal_voltage 7200.0;
	latitude 524.147406678;
};

object fuse {
	phases A;
	from nodeF653757878;
	name F6537;
	current_limit 9999.0 A;
	longitude 94.2697485414;
	to node57866F6537;
	latitude 674.241868344;
};

object node {
	phases ABC;
	name nodeSW1139-Bx157809;
	longitude 231.738573417;
	nominal_voltage 7200.0;
	latitude 657.564461465;
};

object triplex_node {
	phases BS;
	power_12 1657.83+359.132j;
	name 62474204880_B;
	parent node62474204748T62474204749_B;
	longitude 56.5424999364;
	nominal_voltage 120;
	latitude 1008.00970908;
};

object node {
	phases ABC;
	name node1790318206;
	longitude 297.244990067;
	nominal_voltage 7200.0;
	latitude 655.88876608;
};

object triplex_node {
	phases BS;
	power_12 1872.31+405.596j;
	name 62462057437_B;
	parent node62462057439T62462057478_B;
	longitude 261.567450101;
	nominal_voltage 120;
	latitude 596.829726386;
};

object node {
	phases ABC;
	name node2054920445;
	longitude 250.480527622;
	nominal_voltage 7200.0;
	latitude 1104.66049823;
};

object transformer {
	phases CS;
	from nodeT6247420485957977;
	name T62474204859_C;
	to node62474204990T62474204859_C;
	configuration T62462230473_C-CONFIG;
};

object node {
	phases ABC;
	name nodeR120268064;
	longitude 627.695921025;
	nominal_voltage 7200.0;
	latitude 503.995121002;
};

object switch {
	status CLOSED;
	phases ACB;
	from nodeSW1139-Ax1SW1139-Bx1;
	name SW1139-Ax1;
	longitude 231.738573417;
	to node57864SW1139-Ax1;
	latitude 657.564461465;
};

object triplex_node {
	phases AS;
	power_12 3106.21+672.895j;
	name 62474203681_A;
	parent node62474203572T62474203566_A;
	longitude 82.3634217181;
	nominal_voltage 120;
	latitude 1007.87477575;
};

object node {
	phases C;
	name nodeF758019658;
	longitude 248.244295805;
	nominal_voltage 7200.0;
	latitude 976.728590065;
};

object node {
	phases A;
	name node18203F7593;
	longitude 679.433528522;
	nominal_voltage 7200.0;
	latitude 627.261779345;
};

object overhead_line {
	phases A;
	from node21038F7409;
	name 21038;
	longitude 169.109248296;
	to nodeT6247421409921038;
	length 96.8605;
	latitude 1191.67998172;
	configuration 18949-LINECONFIG;
};

object triplex_node {
	phases AS;
	power_12 60.5598+13.119j;
	name 62463017349_A;
	parent node62463017349T62463017451_A;
	longitude 284.36202683;
	nominal_voltage 120;
	latitude 910.57063954;
};

object node {
	phases A;
	name nodeT6246301663418572;
	longitude 243.976330226;
	nominal_voltage 7200.0;
	latitude 891.020829622;
};

object node {
	phases A;
	name nodeF742317888;
	longitude 60.7887467959;
	nominal_voltage 7200.0;
	latitude 693.795003062;
};

object triplex_node {
	phases CS;
	power_12 787.278+170.547j;
	name 62463074161_C;
	parent node62463073088T62463074161_C;
	longitude 502.161798109;
	nominal_voltage 120;
	latitude 866.915768463;
};

object node {
	phases C;
	name node1702316309;
	longitude 559.032172151;
	nominal_voltage 7200.0;
	latitude 471.074169571;
};

object transformer {
	phases BS;
	from nodeT6247420398758183;
	name T62474203987_B;
	to node62474203981T62474203987_B;
	configuration T62463022938_B-CONFIG;
};

object underground_line {
	phases ACB;
	from nodeT6246300040057837;
	name 57833;
	longitude 282.584305314;
	to nodeT6246205849157833;
	length 217.404;
	latitude 609.108191381;
	configuration 57825-LINECONFIG;
};

object node {
	phases A;
	name nodeT6246318788818907;
	longitude 699.287919951;
	nominal_voltage 7200.0;
	latitude 753.012889931;
};

object node {
	phases ABC;
	name node1624616401;
	longitude 518.471859043;
	nominal_voltage 7200.0;
	latitude 341.18449401;
};

object overhead_line {
	phases A;
	from nodeT6246307566519538;
	name 19582;
	longitude 406.165270263;
	to nodeF758719582;
	length 22.8798;
	latitude 877.31686814;
	configuration 19519-LINECONFIG;
};

object node {
	phases ABC;
	name nodeT6246301941419852;
	longitude 276.43593505;
	nominal_voltage 7200.0;
	latitude 935.53590307;
};

object triplex_node {
	phases AS;
	power_12 9003.23+1950.36j;
	name 62474197334_A;
	parent node62474196319T62474196353_A;
	longitude 128.256728815;
	nominal_voltage 120;
	latitude 892.338247249;
};

object underground_line {
	phases B;
	from node5776016286;
	name 57760;
	longitude 599.398896118;
	to nodeF751657760;
	length 25.0002;
	latitude 401.695497999;
	configuration 58119-LINECONFIG;
};

object overhead_line {
	phases ACB;
	from node1624616401;
	name 16246;
	longitude 518.471859043;
	to nodeT6246216294816246;
	length 269.729;
	latitude 341.18449401;
	configuration 20531-LINECONFIG;
};

object switch {
	status CLOSED;
	phases ACB;
	from nodeSW1064-Bx157856;
	name SW1064-Bx1;
	longitude 235.678772709;
	to nodeSW1064-Ax1SW1064-Bx1;
	latitude 654.661692266;
};

object triplex_node {
	phases CS;
	power_12 2916.97+631.898j;
	name 62463021455_C;
	parent node62463021455T62463021550_C;
	longitude 268.359987919;
	nominal_voltage 120;
	latitude 967.838233211;
};

object triplex_meter {
	phases AS;
	name node62463188749T62463188832_A;
	longitude 717.080384185;
	nominal_voltage 120;
	latitude 754.139295327;
};

object node {
	phases C;
	name nodeT6246307416519353;
	longitude 489.91300002;
	nominal_voltage 7200.0;
	latitude 862.56596975;
};

object triplex_node {
	phases AS;
	power_12 6719.62+1455.66j;
	name 62463185287_A;
	parent node62463185287T62463186324_A;
	longitude 794.163676565;
	nominal_voltage 120;
	latitude 724.153626331;
};

object node {
	phases C;
	name node17035F7517;
	longitude 598.983661998;
	nominal_voltage 7200.0;
	latitude 458.558096957;
};

object triplex_node {
	phases AS;
	power_12 7143.54+1547.49j;
	name 62474206893_A;
	parent node62474206893T62474207830_A;
	longitude 44.6207481213;
	nominal_voltage 120;
	latitude 1074.25666054;
};

object node {
	phases B;
	name nodeT6247420298958142;
	longitude 21.939384873;
	nominal_voltage 7200.0;
	latitude 995.453041691;
};

object triplex_node {
	phases CS;
	power_12 73.1765+15.8521j;
	name 62462158002_C;
	parent node62462219940T62462219856_C;
	longitude 697.733587589;
	nominal_voltage 120;
	latitude 305.988428131;
};

object underground_line {
	phases A;
	from nodeT6247420457558177;
	name 57921;
	longitude 94.7322915696;
	to nodeT6247420650557921;
	length 270.722;
	latitude 1048.24129941;
	configuration 58233-LINECONFIG;
};

object node {
	phases B;
	name nodeF758119596;
	longitude 253.894428461;
	nominal_voltage 7200.0;
	latitude 945.304225537;
};

object node {
	phases A;
	name node2040020887;
	longitude 123.827788594;
	nominal_voltage 7200.0;
	latitude 1168.06548003;
};

object overhead_line {
	phases C;
	from node1719417240;
	name 17194;
	longitude 728.558962318;
	to nodeT6246223274117194;
	length 175.369;
	latitude 503.549110146;
	configuration 16781-LINECONFIG;
};

object triplex_node {
	phases AS;
	power_12 1577.08+341.64j;
	name 62474208163_A;
	parent node62474208243T62474208138_A;
	longitude 155.388946538;
	nominal_voltage 120;
	latitude 1074.24982135;
};

object overhead_line {
	phases C;
	from node1689417143;
	name 16894;
	longitude 696.883620296;
	to node1607416894;
	length 557.377;
	latitude 425.262933264;
	configuration 14901-LINECONFIG;
};

object node {
	phases A;
	name nodeF500719048;
	longitude 654.054590482;
	nominal_voltage 7200.0;
	latitude 801.645944478;
};

object triplex_meter {
	phases CS;
	name node62463025237T62463024257_C;
	longitude 297.388085035;
	nominal_voltage 120;
	latitude 1029.08673725;
};

object transformer {
	phases AS;
	from nodeT6247420783058242;
	name T62474207830_A;
	to node62474206893T62474207830_A;
	configuration T62474207830_A-CONFIG;
};

object transformer_configuration {
	name T62474207830_A-CONFIG;
	primary_voltage 7200.0;
	secondary_voltage 120.0;
	connect_type SINGLE_PHASE_CENTER_TAPPED;
	impedance 0.00627571632442+0.0313785816221j;
	powerA_rating 50;
	power_rating 50;
};

object node {
	phases ABC;
	name nodeSW1375-Ax117188;
	longitude 629.447545089;
	nominal_voltage 7200.0;
	latitude 502.79676967;
};

object triplex_meter {
	phases CS;
	name node62463079175T62463079127_C;
	longitude 496.742137644;
	nominal_voltage 120;
	latitude 937.822193387;
};

object node {
	phases ABC;
	name nodeT6247418012257845;
	longitude 165.114539702;
	nominal_voltage 7200.0;
	latitude 629.485183415;
};

object triplex_node {
	phases CS;
	power_12 15.14+3.27975j;
	name 62462220524_C;
	parent node62462219692T62462220516_C;
	longitude 760.797618508;
	nominal_voltage 120;
	latitude 304.001084054;
};

object node {
	phases A;
	name nodeF758719582;
	longitude 406.165270263;
	nominal_voltage 7200.0;
	latitude 877.31686814;
};

object transformer {
	phases AS;
	from nodeT6247420813820424;
	name T62474208138_A;
	to node62474208243T62474208138_A;
	configuration T62463120010_A-CONFIG;
};

object overhead_line {
	phases A;
	from node19196F7587;
	name 19196;
	longitude 402.089870969;
	to node1951919196;
	length 64.7094;
	latitude 873.927662143;
	configuration 19519-LINECONFIG;
};

object line_configuration {
	conductor_A 16564_conductor_B;
	spacing 16781-LINESPACING;
	name 19519-LINECONFIG;
};

object overhead_line {
	phases A;
	from node1934419345;
	name 18569;
	longitude 473.53283849;
	to nodeF758818569;
	length 25.0003;
	latitude 846.142649273;
	configuration 18949-LINECONFIG;
};

object triplex_meter {
	phases CS;
	name node62462058558T62462057585_C;
	longitude 267.710751493;
	nominal_voltage 120;
	latitude 598.844885406;
};

object node {
	phases A;
	name nodeT6246301620119561;
	longitude 314.633145409;
	nominal_voltage 7200.0;
	latitude 885.704536643;
};

object node {
	phases ABC;
	name node1843257818;
	longitude 92.3288182739;
	nominal_voltage 7200.0;
	latitude 672.72134026;
};

object underground_line {
	phases A;
	from nodeT6247418149757865;
	name 57858;
	longitude 113.489870967;
	to nodeT6247418144357858;
	length 139.46;
	latitude 648.48837454;
	configuration 58233-LINECONFIG;
};

object transformer {
	phases AS;
	from nodeT6246205978757835;
	name T62462059787_A;
	to node62462059793T62462059787_A;
	configuration T62474207830_A-CONFIG;
};

object node {
	phases C;
	name nodeT6246301946719851;
	longitude 272.741612117;
	nominal_voltage 7200.0;
	latitude 943.444541535;
};

object overhead_line {
	phases C;
	from node1996419592;
	name 19964;
	longitude 301.708126963;
	to nodeT6246302228919964;
	length 319.967;
	latitude 995.382192376;
	configuration 16781-LINECONFIG;
};

object triplex_node {
	phases CS;
	power_12 2467.81+534.599j;
	name 62462232691_C;
	parent node62462232691T62462232564_C;
	longitude 760.390744263;
	nominal_voltage 120;
	latitude 505.197916313;
};

object underground_line {
	phases ACB;
	from node5783757850;
	name 57837;
	longitude 283.850580916;
	to nodeT6246300040057837;
	length 158.171;
	latitude 626.671068595;
	configuration 57825-LINECONFIG;
};

object node {
	phases ABC;
	name node1476314601;
	longitude 487.941963159;
	nominal_voltage 7200.0;
	latitude 29.0117504926;
};

object transformer {
	phases BS;
	from nodeT6246210022416109;
	name T62462100224_B;
	to node62462100205T62462100224_B;
	configuration T62463025910_B-CONFIG;
};

object triplex_node {
	phases AS;
	power_12 2096.88+454.245j;
	name 62474181480_A;
	parent node62474181379T62474181443_A;
	longitude 117.05396154;
	nominal_voltage 120;
	latitude 647.06977438;
};

object node {
	phases C;
	name node20500F7572;
	longitude 233.837564539;
	nominal_voltage 7200.0;
	latitude 1086.64013895;
};

object overhead_line {
	phases C;
	from node19652F7580;
	name 19652;
	longitude 267.060783342;
	to nodeT6246302155019652;
	length 228.973;
	latitude 974.957481296;
	configuration 16781-LINECONFIG;
};

object overhead_line {
	phases C;
	from node17654F7598;
	name 17654;
	longitude 686.404294916;
	to nodeT6246223799617654;
	length 467.549;
	latitude 592.437543587;
	configuration 16781-LINECONFIG;
};

object triplex_meter {
	phases AS;
	name node62463017349T62463017451_A;
	longitude 280.433670648;
	nominal_voltage 120;
	latitude 915.346070298;
};

object overhead_line {
	phases A;
	from node19770F7582;
	name 19770;
	longitude 269.047258952;
	to nodeT6246301747919770;
	length 260.872;
	latitude 913.54165931;
	configuration 18949-LINECONFIG;
};

object node {
	phases C;
	name nodeT6246223796417998;
	longitude 689.159554267;
	nominal_voltage 7200.0;
	latitude 586.888346344;
};

object triplex_meter {
	phases BS;
	name node62463017062T62463017045_B;
	longitude 348.004009028;
	nominal_voltage 120;
	latitude 907.593047994;
};

object triplex_meter {
	phases AS;
	name node62462059675T62463000610_A;
	longitude 247.897180635;
	nominal_voltage 120;
	latitude 637.55184449;
};

object triplex_node {
	phases CS;
	power_12 2190.25+474.47j;
	name 62474202144_C;
	parent node62474202147T62474202166_C;
	longitude 149.275320584;
	nominal_voltage 120;
	latitude 1002.98106286;
};

object overhead_line {
	phases ACB;
	from nodeT6246209113515042;
	name 15048;
	longitude 488.300732933;
	to nodeSW1039-Bx115048;
	length 29.3356;
	latitude 161.757994096;
	configuration 17361-LINECONFIG;
};

object underground_line {
	phases ACB;
	from node5801719731;
	name 58017;
	longitude 355.299161619;
	to nodeF758658017;
	length 24.9999;
	latitude 906.398212047;
	configuration 57825-LINECONFIG;
};

object triplex_node {
	phases CS;
	power_12 936.154+202.798j;
	name 62474211060_C;
	parent node62474211060T62463031930_C;
	longitude 191.564205257;
	nominal_voltage 120;
	latitude 1144.43484677;
};

object transformer {
	phases CS;
	from nodeT6246209113515042;
	name T62462091135_C;
	to node62462091125T62462091135_C;
	configuration T62462091135_C-CONFIG;
};

object transformer_configuration {
	powerC_rating 5000;
	name T62462091135_C-CONFIG;
	primary_voltage 7200.0;
	secondary_voltage 120.0;
	connect_type SINGLE_PHASE_CENTER_TAPPED;
	impedance 0.00627571632442+0.0313785816221j;
	power_rating 5000;
};

object triplex_node {
	phases CS;
	power_12 7363.07+1595.05j;
	name 62474205807_C;
	parent node62474204990T62474204859_C;
	longitude 38.8792327716;
	nominal_voltage 120;
	latitude 1026.62377854;
};

object node {
	phases ABC;
	name node5779557794;
	longitude 280.029603716;
	nominal_voltage 7200.0;
	latitude 587.894249085;
};

object triplex_meter {
	phases AS;
	name node62463190800T62463189781_A;
	longitude 722.027439553;
	nominal_voltage 120;
	latitude 776.104486601;
};

object triplex_node {
	phases AS;
	power_12 2836.22+614.406j;
	name 62463134548_A;
	parent node62463134548T62463134578_A;
	longitude 581.827387403;
	nominal_voltage 120;
	latitude 866.189952573;
};

object fuse {
	phases C;
	from nodeF504719503;
	name F5047;
	current_limit 9999.0 A;
	longitude 443.498872461;
	to node19502F5047;
	latitude 863.13482598;
};

object triplex_meter {
	phases BS;
	name node62462166430T62462166454_B;
	longitude 601.23496654;
	nominal_voltage 120;
	latitude 411.304996281;
};

object triplex_node {
	phases AS;
	power_12 5049.18+1093.8j;
	name 62463186406_A;
	parent node62463186398T62463185453_A;
	longitude 768.994717595;
	nominal_voltage 120;
	latitude 713.718326066;
};

object node {
	phases C;
	name node1662216781;
	longitude 763.453940837;
	nominal_voltage 7200.0;
	latitude 379.401026062;
};

object triplex_node {
	phases AS;
	power_12 2821.08+611.126j;
	name 62474147020_A;
	parent node62474207930T62474207936_A;
	longitude 21.2384228104;
	nominal_voltage 120;
	latitude 1077.21594439;
};

object transformer_configuration {
	name T62463020868_B-CONFIG;
	primary_voltage 7200.0;
	secondary_voltage 120.0;
	connect_type SINGLE_PHASE_CENTER_TAPPED;
	impedance 0.00033+0.0022j;
	powerB_rating 15;
	power_rating 15;
};

object transformer {
	phases CS;
	from nodeT6246307416119512;
	name T62463074161_C;
	to node62463073088T62463074161_C;
	configuration T62462222900_C-CONFIG;
};

object transformer {
	phases CS;
	from nodeT6246300082957844;
	name T62463000829_C;
	to node62463000855T62463000829_C;
	configuration T62463001769_C-CONFIG;
};

object switch {
	status CLOSED;
	phases ACB;
	from nodeSW1250-Ax1SW1250-Bx1;
	name SW1250-Ax1;
	longitude 538.942949319;
	to node19281SW1250-Ax1;
	latitude 812.306219473;
};

object transformer {
	phases AS;
	from nodeT6246318674218359;
	name T62463186742_A;
	to node62463186718T62463186742_A;
	configuration T62463013576_A-CONFIG;
};

object triplex_node {
	phases AS;
	power_12 156.446+33.8907j;
	name 62463013691_A;
	parent node62463013691T62463013576_A;
	longitude 254.719266429;
	nominal_voltage 120;
	latitude 845.999772468;
};

object triplex_meter {
	phases CS;
	name node62463001804T62463001814_C;
	longitude 214.069152023;
	nominal_voltage 120;
	latitude 653.775801528;
};

object transformer_configuration {
	name T62463078922_B-CONFIG;
	primary_voltage 7200.0;
	secondary_voltage 120.0;
	connect_type SINGLE_PHASE_CENTER_TAPPED;
	impedance 0.00627571632442+0.0313785816221j;
	powerB_rating 25;
	power_rating 25;
};

object transformer {
	phases CS;
	from nodeT6246217074317023;
	name T62462170743_C;
	to node62462170679T62462170743_C;
	configuration T62462230473_C-CONFIG;
};

object node {
	phases ABC;
	name node1934519501;
	longitude 474.26876951;
	nominal_voltage 7200.0;
	latitude 848.034803531;
};

object underground_line {
	phases ACB;
	from nodeT6247420268158145;
	name 58146;
	longitude 68.0463899407;
	to nodeT6247420279158146;
	length 199.716;
	latitude 997.285931576;
	configuration 57825-LINECONFIG;
};

object overhead_line {
	phases A;
	from nodeT6246319059819136;
	name 19096;
	longitude 769.3875642;
	to node1855819096;
	length 343.023;
	latitude 823.265941384;
	configuration 19519-LINECONFIG;
};

object overhead_line {
	phases A;
	from node1894919049;
	name 18949;
	longitude 709.210109656;
	to nodeT6246318883218949;
	length 346.911;
	latitude 761.283008613;
	configuration 18949-LINECONFIG;
};

object node {
	phases A;
	name node5796319316;
	longitude 568.819816896;
	nominal_voltage 7200.0;
	latitude 888.352774453;
};

object triplex_meter {
	phases CS;
	name node62462168493T62462169442_C;
	longitude 620.34227934;
	nominal_voltage 120;
	latitude 455.740650297;
};

object capacitor {
	control MANUAL;
	phases ABCN;
	name CAP134;
	parent node7055970558;
	capacitor_B 48000.0;
	capacitor_C 48000.0;
	capacitor_A 48000.0;
	longitude 620.718039897;
	latitude 470.932535263;
	nominal_voltage 7200.0;
	switchB CLOSED;
	switchC CLOSED;
	control_level BANK;
	switchA CLOSED;
	phases_connected ABCN;
	pt_phase A;
};

object overhead_line {
	phases ACB;
	from node1476314601;
	name 14763;
	longitude 487.941963159;
	to node1466514763;
	length 341.358;
	latitude 29.0117504926;
	configuration 20531-LINECONFIG;
};

object node {
	phases C;
	name nodeT6247420435458172;
	longitude 128.507622391;
	nominal_voltage 7200.0;
	latitude 1023.17880995;
};

object triplex_meter {
	phases AS;
	name node62463074975T62463014050_A;
	longitude 357.097428099;
	nominal_voltage 120;
	latitude 862.452936083;
};

object node {
	phases A;
	name nodeT6246318897818991;
	longitude 682.844078576;
	nominal_voltage 7200.0;
	latitude 766.801827039;
};

object node {
	phases A;
	name nodeT6246301254019399;
	longitude 267.664492261;
	nominal_voltage 7200.0;
	latitude 826.941758477;
};

object triplex_meter {
	phases AS;
	name node62463016038T62463016077_A;
	longitude 336.229164275;
	nominal_voltage 120;
	latitude 901.497860925;
};

object node {
	phases ABC;
	name node7092570924;
	longitude 538.942949319;
	nominal_voltage 7200.0;
	latitude 812.306219473;
};

object triplex_meter {
	phases CS;
	name node62463121169T62463121197_C;
	longitude 661.780636385;
	nominal_voltage 120;
	latitude 665.550186065;
};

object node {
	phases ABC;
	name node15051SW1039-Ax1;
	longitude 487.086789887;
	nominal_voltage 7200.0;
	latitude 162.022706115;
};

object triplex_meter {
	phases AS;
	name node62473239194T62474180122_A;
	longitude 158.407302626;
	nominal_voltage 120;
	latitude 636.600614803;
};

object overhead_line {
	phases C;
	from node2047820479;
	name 20478;
	longitude 283.236421603;
	to nodeT6246302843020478;
	length 209.243;
	latitude 1085.16172296;
	configuration 16781-LINECONFIG;
};

object node {
	phases ABC;
	name node5817658150;
	longitude 54.0120683824;
	nominal_voltage 7200.0;
	latitude 1022.18643526;
};

object underground_line {
	phases A;
	from node5787818432;
	name 57878;
	longitude 94.2697485414;
	to nodeF653757878;
	length 30.0841;
	latitude 674.241868344;
	configuration 58233-LINECONFIG;
};

object node {
	phases ABC;
	name nodeSW1139-Ax1SW1139-Bx1;
	longitude 231.738573417;
	nominal_voltage 7200.0;
	latitude 657.564461465;
};

object triplex_meter {
	phases CS;
	name node62462236984T62462236981_C;
	longitude 689.892175395;
	nominal_voltage 120;
	latitude 576.625617122;
};

object triplex_node {
	phases CS;
	power_12 1988.38+430.74j;
	name 62462057863_C;
	parent node62462057863T62462058873_C;
	longitude 217.022120444;
	nominal_voltage 120;
	latitude 613.81641028;
};

object triplex_node {
	phases BS;
	power_12 2586.41+560.29j;
	name 62463123039_B;
	parent node62463123162T62463123126_B;
	longitude 656.716167149;
	nominal_voltage 120;
	latitude 688.771486772;
};

object triplex_node {
	phases CS;
	power_12 2293.7+496.882j;
	name 62463028401_C;
	parent node62463028401T62463028430_C;
	longitude 283.748068114;
	nominal_voltage 120;
	latitude 1078.94259809;
};

object node {
	phases ABC;
	name node1667616792;
	longitude 561.761658248;
	nominal_voltage 7200.0;
	latitude 387.664064292;
};

object overhead_line {
	phases C;
	from node19563F5815;
	name 19563;
	longitude 312.130685673;
	to nodeT6246301925319563;
	length 243.066;
	latitude 942.857217739;
	configuration 16781-LINECONFIG;
};

object overhead_line {
	phases C;
	from nodeT6246217327217422;
	name 17421;
	longitude 645.281565516;
	to node6778217421;
	length 23.1075;
	latitude 525.057327425;
	configuration 16781-LINECONFIG;
};

object transformer {
	phases CS;
	from nodeT6246307416519353;
	name T62463074165_C;
	to node62463074197T62463074165_C;
	configuration T62463074165_C-CONFIG;
};

object transformer_configuration {
	powerC_rating 5000;
	name T62463074165_C-CONFIG;
	primary_voltage 7200.0;
	secondary_voltage 120.0;
	connect_type SINGLE_PHASE_CENTER_TAPPED;
	impedance 0.00033+0.0022j;
	power_rating 5000;
};

object triplex_meter {
	phases AS;
	name node62474195151T62474196103_A;
	longitude 162.252885431;
	nominal_voltage 120;
	latitude 881.150777899;
};

object triplex_node {
	phases AS;
	power_12 239.716+51.9293j;
	name 62474215045_A;
	parent node62474215045T62474214083_A;
	longitude 173.49067203;
	nominal_voltage 120;
	latitude 1185.23218621;
};

object overhead_line {
	phases A;
	from node1929719284;
	name 19297;
	longitude 594.489561917;
	to node1932919297;
	length 354.071;
	latitude 815.661076264;
	configuration 18949-LINECONFIG;
};

object triplex_meter {
	phases AS;
	name node62462091125T62462091135_A;
	longitude 486.597048649;
	nominal_voltage 120;
	latitude 159.985191996;
};

object overhead_line {
	phases C;
	from node19353F7589;
	name 19353;
	longitude 489.91300002;
	to nodeT6246307416519353;
	length 235.932;
	latitude 862.56596975;
	configuration 16781-LINECONFIG;
};

object node {
	phases C;
	name node1736617105;
	longitude 655.02885484;
	nominal_voltage 7200.0;
	latitude 512.419917522;
};

object triplex_node {
	phases BS;
	power_12 2356.79+510.547j;
	name 62474143060_B;
	parent node62474203981T62474203987_B;
	longitude 22.0690463937;
	nominal_voltage 120;
	latitude 1013.18970999;
};

object node {
	phases ABC;
	name node1518515558;
	longitude 502.641930085;
	nominal_voltage 7200.0;
	latitude 182.445029015;
};

object node {
	phases C;
	name nodeF758919344;
	longitude 475.767669539;
	nominal_voltage 7200.0;
	latitude 849.427012707;
};

object node {
	phases ABC;
	name node1826517903;
	longitude 296.195597799;
	nominal_voltage 7200.0;
	latitude 639.579133748;
};

object triplex_node {
	phases AS;
	power_12 4279.56+927.075j;
	name 62474196191_A;
	parent node62474196191T62474197105_A;
	longitude 156.718301723;
	nominal_voltage 120;
	latitude 903.034324853;
};

object node {
	phases ABC;
	name node2044520881;
	longitude 262.881404192;
	nominal_voltage 7200.0;
	latitude 1116.84969696;
};

object overhead_line {
	phases ACB;
	from node1518515558;
	name 15185;
	longitude 502.641930085;
	to node1504015185;
	length 317.537;
	latitude 182.445029015;
	configuration 20531-LINECONFIG;
};

object node {
	phases A;
	name node5826220341;
	longitude 154.37379843;
	nominal_voltage 7200.0;
	latitude 1066.8790349;
};

object transformer {
	phases BS;
	from nodeT6247420497957981;
	name T62474204979_B;
	to node62474144036T62474204979_B;
	configuration T62463022938_B-CONFIG;
};

object node {
	phases ABC;
	name node2078820874;
	longitude 179.454416691;
	nominal_voltage 7200.0;
	latitude 1190.24203128;
};

object fuse {
	phases A;
	from nodeF740921039;
	name F7409;
	current_limit 9999.0 A;
	longitude 177.026540678;
	to node21038F7409;
	latitude 1190.57952098;
};

object node {
	phases A;
	name nodeT6247420793657911;
	longitude 25.6492423036;
	nominal_voltage 7200.0;
	latitude 1068.04833753;
};

object transformer {
	phases BS;
	from nodeT6246302086819930;
	name T62463020868_B;
	to node62463020936T62463020868_B;
	configuration T62463020868_B-CONFIG;
};

object overhead_line {
	phases ACB;
	from node2044520881;
	name 20445;
	longitude 262.881404192;
	to node2054920445;
	length 465.786;
	latitude 1116.84969696;
	configuration 20531-LINECONFIG;
};

object triplex_node {
	phases AS;
	power_12 7035.03+1523.99j;
	name 62463027895_A;
	parent node62463027895T62463028953_A;
	longitude 196.928472254;
	nominal_voltage 120;
	latitude 1080.19515868;
};

object node {
	phases BC;
	name nodeT6247420497957981;
	longitude 21.2067391229;
	nominal_voltage 7200.0;
	latitude 1025.87236381;
};

object node {
	phases A;
	name node1788818443;
	longitude 60.7887467959;
	nominal_voltage 7200.0;
	latitude 693.795003062;
};

object overhead_line {
	phases ACB;
	from node6830421011;
	name 68300;
	longitude 247.9786675;
	to node6830168300;
	length 10;
	latitude 1189.25127842;
	configuration 20531-LINECONFIG;
};

object triplex_meter {
	phases AS;
	name node62463024800T62463023775_A;
	longitude 229.522471453;
	nominal_voltage 120;
	latitude 1005.27809424;
};

object node {
	phases C;
	name nodeT6246217074317023;
	longitude 559.032172151;
	nominal_voltage 7200.0;
	latitude 471.074169571;
};

object overhead_line {
	phases C;
	from node1729017054;
	name 17268;
	longitude 754.82175425;
	to nodeT6246223154517268;
	length 194.763;
	latitude 487.590139527;
	configuration 16781-LINECONFIG;
};

object node {
	phases ABC;
	name node1788618630;
	longitude 653.578347057;
	nominal_voltage 7200.0;
	latitude 677.893175645;
};

object triplex_node {
	phases AS;
	power_12 3217.24+696.947j;
	name 62474207949_A;
	parent node62474207930T62474207936_A;
	longitude 28.7381343526;
	nominal_voltage 120;
	latitude 1079.51261209;
};

object triplex_meter {
	phases AS;
	name node62463001627T62463000688_A;
	longitude 244.298540546;
	nominal_voltage 120;
	latitude 641.596360674;
};

object node {
	phases ABC;
	name nodeSW1421-Bx117095;
	longitude 644.946870938;
	nominal_voltage 7200.0;
	latitude 522.58596813;
};

object fuse {
	phases B;
	from nodeF751657760;
	name F7516;
	current_limit 9999.0 A;
	longitude 599.398896118;
	to node57765F7516;
	latitude 401.695497999;
};

object overhead_line {
	phases ACB;
	from node1640116676;
	name 16401;
	longitude 533.780664346;
	to node1624616401;
	length 507.61;
	latitude 357.052328178;
	configuration 20531-LINECONFIG;
};

object triplex_node {
	phases CS;
	power_12 3550.32+769.101j;
	name 62474203373_C;
	parent node62474203443T62474203356_C;
	longitude 131.064780178;
	nominal_voltage 120;
	latitude 1001.70391438;
};

object node {
	phases A;
	name node20130F8944;
	longitude 225.375642686;
	nominal_voltage 7200.0;
	latitude 1011.10827356;
};

object transformer {
	phases AS;
	from nodeT6246301745119750;
	name T62463017451_A;
	to node62463017349T62463017451_A;
	configuration T62474196103_A-CONFIG;
};

object triplex_node {
	phases AS;
	power_12 5859.16+1269.26j;
	name 62474203781_A;
	parent node62474203871T62474203769_A;
	longitude 58.2986594876;
	nominal_voltage 120;
	latitude 1027.57357826;
};

object node {
	phases ABC;
	name node1985219597;
	longitude 276.43593505;
	nominal_voltage 7200.0;
	latitude 935.53590307;
};

object transformer {
	phases AS;
	from nodeT6246313079419089;
	name T62463130794_A;
	to node62463130850T62463130794_A;
	configuration T62463120010_A-CONFIG;
};

object triplex_meter {
	phases CS;
	name node62462219692T62462220516_C;
	longitude 758.799139058;
	nominal_voltage 120;
	latitude 303.268890178;
};

object overhead_line {
	phases ACB;
	from nodeT6246312119717815;
	name 18225;
	longitude 652.272940448;
	to node1809818225;
	length 311.169;
	latitude 631.747732818;
	configuration 20531-LINECONFIG;
};

object underground_line {
	phases ACB;
	from node5785657808;
	name 57856;
	longitude 235.678772709;
	to nodeSW1064-Bx157856;
	length 29.9672;
	latitude 654.661692266;
	configuration 57809-LINECONFIG;
};

object node {
	phases B;
	name node19599F7581;
	longitude 217.961173183;
	nominal_voltage 7200.0;
	latitude 960.385760572;
};

object node {
	phases A;
	name node2088720886;
	longitude 141.355280754;
	nominal_voltage 7200.0;
	latitude 1164.71369871;
};

object overhead_line {
	phases ACB;
	from node6829968298;
	name 68299;
	longitude 251.005334611;
	to nodeR118268299;
	length 24.3563;
	latitude 1186.71625905;
	configuration 20531-LINECONFIG;
};

object node {
	phases ABC;
	name nodeT6247420236258134;
	longitude 133.187501544;
	nominal_voltage 7200.0;
	latitude 993.073382516;
};

object triplex_node {
	phases AS;
	power_12 2669.68+578.329j;
	name 62463016251_A;
	parent node62463016251T62463016201_A;
	longitude 310.654325067;
	nominal_voltage 120;
	latitude 885.378873014;
};

object triplex_meter {
	phases AS;
	name node62474181469T62474181497_A;
	longitude 98.4125415769;
	nominal_voltage 120;
	latitude 659.243073451;
};

object triplex_meter {
	phases BS;
	name node62463018228T62463018249_B;
	longitude 298.606522137;
	nominal_voltage 120;
	latitude 925.333964639;
};

object triplex_node {
	phases AS;
	power_12 3209.67+695.307j;
	name 62474208243_A;
	parent node62474208243T62474208138_A;
...